psse/maple_debug_v33.RAW
 0,    100.00, 33, 0, 0, 60.00       / February 21, 2023 10:48:04; Simulator Version 22; BuildDate 2021_4_8


    1,'bus_1_230   ', 230.0000,3,   1,   1,   1,1.00000000,  86.938254, 1.10000, 0.90000, 1.10000, 0.90000
    2,'bus_2_230   ', 230.0000,1,   1,   1,   1,0.98804444,  85.481887, 1.10000, 0.90000, 1.10000, 0.90000
    3,'bus_3_115   ', 115.0000,1,   1,   1,   1,0.97739309,  84.421691, 1.10000, 0.90000, 1.10000, 0.90000
    4,'bus_4_115   ', 115.0000,1,   1,   1,   1,0.97482383,  84.183017, 1.10000, 0.90000, 1.10000, 0.90000
    5,'bus_5_34_5kv',  34.5000,1,   1,   1,   1,0.95979935,  81.665942, 1.10000, 0.90000, 1.10000, 0.90000
    6,'bus_6_34.5  ',  34.5000,1,   1,   1,   1,0.96081787,  82.032799, 1.10000, 0.90000, 1.10000, 0.90000
    7,'bus_7_12.4~1',  12.4700,1,   1,   1,   1,0.95339286,  80.432984, 1.10000, 0.90000, 1.10000, 0.90000
    8,'bus_8_12_4~1',  12.4700,1,   1,   1,   1,0.95772719,  81.451461, 1.10000, 0.90000, 1.10000, 0.90000
    9,'bus_9_4     ',   4.0000,1,   1,   1,   1,0.96016937,  81.963861, 1.10000, 0.90000, 1.10000, 0.90000
   10,'bus_10_4    ',   4.0000,1,   1,   1,   1,0.96019191,  81.945850, 1.10000, 0.90000, 1.10000, 0.90000
0 / END OF BUS DATA, BEGIN LOAD DATA
    5,'1 ',1,   1,   1,    65.000,    20.000,     0.000,     0.000,     0.000,     0.000,   1,1, 0
    6,'1 ',1,   1,   1,    60.000,    20.000,     0.000,     0.000,     0.000,     0.000,   1,1, 0
    7,'1 ',1,   1,   1,    15.000,     4.000,     0.000,     0.000,     0.000,     0.000,   1,1, 0
    7,'2 ',1,   1,   1,     8.000,     2.000,     0.000,     0.000,     0.000,     0.000,   1,1, 0
    7,'3 ',1,   1,   1,     7.000,     2.000,     0.000,     0.000,     0.000,     0.000,   1,1, 0
    7,'4 ',1,   1,   1,     6.000,     2.000,     0.000,     0.000,     0.000,     0.000,   1,1, 0
    8,'1 ',1,   1,   1,     2.000,     0.600,     0.000,     0.000,     0.000,     0.000,   1,1, 0
    8,'2 ',1,   1,   1,     9.000,     3.000,     0.000,     0.000,     0.000,     0.000,   1,1, 0
    8,'3 ',1,   1,   1,     5.000,     1.500,     0.000,     0.000,     0.000,     0.000,   1,1, 0
    9,'1 ',1,   1,   1,     5.000,     1.000,     0.000,     0.000,     0.000,     0.000,   1,1, 0
    9,'2 ',1,   1,   1,     2.000,     0.600,     0.000,     0.000,     0.000,     0.000,   1,1, 0
   10,'1 ',1,   1,   1,     8.000,     3.000,     0.000,     0.000,     0.000,     0.000,   1,1, 0
   10,'2 ',1,   1,   1,     4.000,     1.000,     0.000,     0.000,     0.000,     0.000,   1,1, 0
0 / END OF LOAD DATA, BEGIN FIXED SHUNT DATA
0 / END OF FIXED SHUNT DATA, BEGIN GENERATOR DATA
    1,'1 ',   197.733,    73.838,   100.000,  -100.000,1.00000,    0,   100.000,   0.00000,   1.00000,   0.00000,   0.00000,1.00000,1,  100.0,   250.000,     0.000,   1,1.0000,   0,1.0000,   0,1.0000,   0,1.0000,0, 1.0000
0 / END OF GENERATOR DATA, BEGIN BRANCH DATA
     1,     2,'1 ',4.00000E-3,4.00000E-2,8.00000E-2,   0.00,   0.00,   0.00,  0.00000,  0.00000,  0.00000,  0.00000, 1,1,   0.00,   1,1.0000,   0,1.0000,   0,1.0000,   0,1.0000
     3,     4,'1 ',8.00000E-3,3.00000E-2,4.00000E-3,   0.00,   0.00,   0.00,  0.00000,  0.00000,  0.00000,  0.00000, 1,1,   0.00,   1,1.0000,   0,1.0000,   0,1.0000,   0,1.0000
0 / END OF BRANCH DATA, BEGIN TRANSFORMER DATA
     1,     3,    0,'1 ',1,1,1,0.00000E-1,0.00000E-1,2,'            ', 1,   1,1.0000,   0,1.0000,   0,1.0000,   0,1.0000,'            '
4.00000E-3,3.40000E-2, 100.00
1.000000,230.000,   0.000,   0.00,   0.00,   0.00, 0,     0,1.500000,0.510000,1.500000,0.510000,159, 0, 0.00000, 0.00000,  0.000
1.000000,115.000
     2,     4,    0,'1 ',1,1,1,0.00000E-1,0.00000E-1,2,'            ', 1,   1,1.0000,   0,1.0000,   0,1.0000,   0,1.0000,'            '
6.00000E-3,3.60000E-2, 100.00
1.000000,230.000,   0.000,   0.00,   0.00,   0.00, 0,     0,1.500000,0.510000,1.500000,0.510000,159, 0, 0.00000, 0.00000,  0.000
1.000000,115.000
     3,     5,    0,'1 ',1,1,1,0.00000E-1,0.00000E-1,2,'            ', 1,   1,1.0000,   0,1.0000,   0,1.0000,   0,1.0000,'            '
1.50000E-3,3.90000E-2, 100.00
1.000000,115.000,   0.000,   0.00,   0.00,   0.00, 1,     3,1.100000,0.900000,1.010000,0.990000, 33, 0, 0.00000, 0.00000,  0.000
1.000000, 34.500
     4,     6,    0,'1 ',1,1,1,0.00000E-1,0.00000E-1,2,'            ', 1,   1,1.0000,   0,1.0000,   0,1.0000,   0,1.0000,'            '
1.60000E-3,4.50000E-2, 100.00
1.000000,115.000,   0.000,   0.00,   0.00,   0.00, 0,     4,1.100000,0.900000,1.010000,0.990000, 33, 0, 0.00000, 0.00000,  0.000
1.000000, 34.500
     5,     7,    0,'1 ',1,1,1,0.00000E-1,0.00000E-1,2,'            ', 1,   1,1.0000,   0,1.0000,   0,1.0000,   0,1.0000,'            '
1.10000E-3,5.50000E-2, 100.00
1.000000, 34.500,   0.000,   0.00,   0.00,   0.00, 0,     0,1.500000,0.510000,1.500000,0.510000,159, 0, 0.00000, 0.00000,  0.000
1.000000, 12.470
     5,     8,    0,'1 ',1,1,1,0.00000E-1,0.00000E-1,2,'            ', 1,   1,1.0000,   0,1.0000,   0,1.0000,   0,1.0000,'            '
5.00000E-3,2.31000E-2, 100.00
1.000000, 34.500,   0.000,   0.00,   0.00,   0.00, 0,     0,1.500000,0.510000,1.500000,0.510000,159, 0, 0.00000, 0.00000,  0.000
1.000000, 12.470
     6,     9,    0,'1 ',1,1,1,0.00000E-1,0.00000E-1,2,'            ', 1,   1,1.0000,   0,1.0000,   0,1.0000,   0,1.0000,'            '
5.00000E-3,1.70000E-2, 100.00
1.000000, 34.500,   0.000,   0.00,   0.00,   0.00, 0,     6,1.100000,0.900000,1.010000,0.990000, 33, 0, 0.00000, 0.00000,  0.000
1.000000,  4.000
     6,    10,    0,'1 ',1,1,1,0.00000E-1,0.00000E-1,2,'            ', 1,   1,1.0000,   0,1.0000,   0,1.0000,   0,1.0000,'            '
1.00000E-3,1.20000E-2, 100.00
1.000000, 34.500,   0.000,   0.00,   0.00,   0.00, 0,     6,1.100000,0.900000,1.010000,0.990000, 33, 0, 0.00000, 0.00000,  0.000
1.000000,  4.000
0 / END OF TRANSFORMER DATA, BEGIN AREA DATA
   1,    0,     0.000,     1.000,'1           '
0 / END OF AREA DATA, BEGIN TWO-TERMINAL DC DATA
0 / END OF TWO-TERMINAL DC DATA, BEGIN VOLTAGE SOURCE CONVERTER DATA
0 / END OF VOLTAGE SOURCE CONVERTER DATA, BEGIN IMPEDANCE CORRECTION DATA
0 / END OF IMPEDANCE CORRECTION DATA, BEGIN MULTI-TERMINAL DC DATA
0 / END OF MULTI-TERMINAL DC DATA, BEGIN MULTI-SECTION LINE DATA
0 / END OF MULTI-SECTION LINE DATA, BEGIN ZONE DATA
   1,'1       '
0 / END OF ZONE DATA, BEGIN INTER-AREA TRANSFER DATA
0 / END OF INTER-AREA TRANSFER DATA, BEGIN OWNER DATA
    1,'1'
0 / END OF OWNER DATA, BEGIN FACTS CONTROL DEVICE DATA
0 / END OF FACTS CONTROL DEVICE DATA, BEGIN SWITCHED SHUNT DATA
0 /END OF SWITCHED SHUNT DATA, BEGIN GNE DEVICE DATA
0 /END OF GNE DEVICE DATA
Q
